LAMMPS (29 Aug 2024 - Development - 5b9cae1)
KOKKOS mode with Kokkos version 4.3.1 is enabled (src/KOKKOS/kokkos.cpp:72)
  will use up to 1 GPU(s) per node
package kokkos
units         metal
atom_style    atomic
atom_modify   map yes
newton        on

boundary p p p

#read_data structure.data
read_data data.CPI
Reading data file ...
  triclinic box = (0 0 0) to (41.7368 19.162 17.761) with tilt (0 0 0)
  reading atoms ...
  320 atoms

variable        p_id world   1

variable        temperature equal 300.0
variable        temperature2 equal 300.0
variable        tempDamp equal 100.0 # approx 0.1 ps

variable        pressure equal 1.00
variable        pressureDamp equal 500.0

variable        seed world 1428

mass            1 132.905  # Cs
mass            2 126.900  # I
mass            3 207.2  # Pb

pair_style  grace
[GRACE] TF version: 2.16.2
[GRACE] Neighbour padding is ON, padding fraction: 0.01, max padding fraction before reduction: 0.2, max number of reduction(s): 10
pair_coeff  * * /users/pahlawat/.cache/grace/MP_GRACE_2L_r6_11Nov2024 Cs I Pb
[GRACE] Loading /users/pahlawat/.cache/grace/MP_GRACE_2L_r6_11Nov2024
[GRACE] Model loaded
[GRACE] Mapping LAMMPS atom type #1(Cs) -> ACE species type #18
[GRACE] Mapping LAMMPS atom type #2(I) -> ACE species type #33
[GRACE] Mapping LAMMPS atom type #3(Pb) -> ACE species type #55

neighbor 1.0 bin
neigh_modify delay 5 every 1

#write_dump all custom output.dump id type x y z fx fy fz
#
variable freq equal 100
#variable dt equal 0.001

thermo          100
thermo_style    custom step temp pe ke etotal press lx ly lz xy xz yz
restart         100 restart.0 restart.2

#minimize 0.0 1.0e-3 100 10000

# NVT

dump            myDump1 all atom 100 out.0.lammpstrj
fix             1 all temp/csvr 300 300 0.10000000000000000555 1428
fix             2 all nve
timestep        0.002
velocity        all create 300 1428 dist gaussian
run             1000

CITE-CITE-CITE-CITE-CITE-CITE-CITE-CITE-CITE-CITE-CITE-CITE-CITE

Your simulation uses code contributions which should be cited:

- Type Label Framework: https://doi.org/10.1021/acs.jpcb.3c08419

@Article{Gissinger24,
 author = {Jacob R. Gissinger, Ilia Nikiforov, Yaser Afshar, Brendon Waters, Moon-ki Choi, Daniel S. Karls, Alexander Stukowski, Wonpil Im, Hendrik Heinz, Axel Kohlmeyer, and Ellad B. Tadmor},
 title = {Type Label Framework for Bonded Force Fields in LAMMPS},
 journal = {J. Phys. Chem. B},
 year =    2024,
 volume =  128,
 number =  13,
 pages =   {3282â€“-3297}
}

CITE-CITE-CITE-CITE-CITE-CITE-CITE-CITE-CITE-CITE-CITE-CITE-CITE

Step          Temp          PotEng         KinEng         TotEng         Press            Lx             Ly             Lz             Xy             Xz             Yz
0   300           -989.61687      12.370196     -977.24667      12363.07       41.7368        19.162         17.761         0              0              0
Averages over the last 6 of 11 rows, steps 500 to 1000:
Temp PotEng KinEng TotEng Press Lx Ly Lz Xy Xz Yz
304.173 -977.34 12.5422 -964.798 14463 41.7368 19.162 17.761 0 0 0
Loop time of 42.9694 on 1 procs for 1000 steps with 320 atoms

unfix           1
unfix           2
write_data      data.NVT
System init for write_data ...
undump          myDump1
reset_timestep  0

# NPT
dump            myDump3 all atom 100 out.1.lammpstrj
fix             1 all plumed plumedfile plumed.dat outfile plumed.log
fix             2 all temp/csvr 300 300 1 1428
fix             3 all nph tri 1 1 $(500.0*dt)
fix             3 all nph tri 1 1 1
fix             4 all momentum 10000 linear 1 1 1
run             50000000
Step          Temp          PotEng         KinEng         TotEng         Press            Lx             Ly             Lz             Xy             Xz             Yz
0   314.83751     -978.62         12.982006     -965.63799      15274.01       41.7368        19.162         17.761         0              0              0
Averages over the last 89 of 178 rows, steps 8900 to 17700:
Temp PotEng KinEng TotEng Press Lx Ly Lz Xy Xz Yz
457.701 -1112.99 18.8728 -1094.12 173.033 48.9281 22.8024 16.323 -0.0111205 -0.0131841 -0.0112228
